A71EV2A-x0202b
  PyMOL3.1          3D                             0

  5  4  0  0  0  0  0  0  0  0999 V2000
   -1.4320   25.0780   13.6690 O   0  0  0  0  0  0  0  0  0  0  0  0
   -2.4980   24.2680   15.5960 O   0  0  0  0  0  0  0  0  0  0  0  0
   -1.0570   22.8660   14.3730 O   0  5  0  0  0  0  0  0  0  0  0  0
   -0.1780   24.6580   15.6150 O   0  0  0  0  0  0  0  0  0  0  0  0
   -1.2910   24.2180   14.8130 S   0  0  0  0  0  0  0  0  0  0  0  0
  1  5  1  0  0  0  0
  2  5  1  0  0  0  0
  3  5  1  0  0  0  0
  4  5  2  0  0  0  0
M  END
$$$$
