A71EV2A-x0202b
  PyMOL3.1          3D                             0

  4  3  0  0  0  0  0  0  0  0999 V2000
   14.5590   21.2490   10.1410 O   0  0  0  0  0  0  0  0  0  0  0  0
   14.0000   21.2940    7.6020 C   0  0  0  0  0  0  0  0  0  0  0  0
   16.1160   22.6660    8.5430 C   0  0  0  0  0  0  0  0  0  0  0  0
   15.2760   21.1200    8.8330 S   0  0  0  0  0  0  0  0  0  0  0  0
  1  4  1  0  0  0  0
  2  4  1  0  0  0  0
  3  4  1  0  0  0  0
M  END
$$$$
