A71EV2A-x0202b
  PyMOL3.1          3D                             0

  4  3  0  0  0  0  0  0  0  0999 V2000
   13.5790   22.5620   23.7010 O   0  0  0  0  0  0  0  0  0  0  0  0
   13.7690   22.9110   26.3130 C   0  0  0  0  0  0  0  0  0  0  0  0
   11.4120   22.3460   25.1720 C   0  0  0  0  0  0  0  0  0  0  0  0
   13.1250   21.9110   24.9860 S   0  0  0  0  0  0  0  0  0  0  0  0
  1  4  1  0  0  0  0
  2  4  1  0  0  0  0
  3  4  1  0  0  0  0
M  END
$$$$
