A71EV2A-x0202b
  PyMOL3.1          3D                             0

  4  3  0  0  0  0  0  0  0  0999 V2000
   -0.7380   -0.1230   24.0030 O   0  0  0  0  0  0  0  0  0  0  0  0
    0.2580   -2.5460   23.8750 C   0  0  0  0  0  0  0  0  0  0  0  0
   -2.3550   -2.1000   23.3550 C   0  0  0  0  0  0  0  0  0  0  0  0
   -0.7690   -1.3230   23.0970 S   0  0  0  0  0  0  0  0  0  0  0  0
  1  4  1  0  0  0  0
  2  4  1  0  0  0  0
  3  4  1  0  0  0  0
M  END
$$$$
