A71EV2A-x0202b
  PyMOL3.1          3D                             0

  8  6  0  0  0  0  0  0  0  0999 V2000
   19.3250   -8.4330    8.4930 O   0  0  0  0  0  0  0  0  0  0  0  0
   16.7180   -8.3900    8.6750 C   0  0  0  0  0  0  0  0  0  0  0  0
   18.2640   -7.0780   10.4630 C   0  0  0  0  0  0  0  0  0  0  0  0
   18.2230   -7.4390    8.7180 S   0  0  0  0  0  0  0  0  0  0  0  0
   14.5590   21.2490   10.1410 O   0  0  0  0  0  0  0  0  0  0  0  0
   14.0000   21.2940    7.6020 C   0  0  0  0  0  0  0  0  0  0  0  0
   16.1160   22.6660    8.5430 C   0  0  0  0  0  0  0  0  0  0  0  0
   15.2760   21.1200    8.8330 S   0  0  0  0  0  0  0  0  0  0  0  0
  1  4  1  0  0  0  0
  2  4  1  0  0  0  0
  3  4  1  0  0  0  0
  5  8  1  0  0  0  0
  6  8  1  0  0  0  0
  7  8  1  0  0  0  0
M  END
$$$$
