A71EV2A-x4017_C_201_0_1_A71EV2A-x0526+A+147+0+1__LIG
     RDKit          3D

 22 24  0  0  0  0  0  0  0  0999 V2000
    9.9980   16.9940   19.4940 O   0  0  0  0  0  0  0  0  0  0  0  0
   10.4410   15.8530   19.7010 C   0  0  0  0  0  0  0  0  0  0  0  0
   10.6330   14.9610   18.7380 N   0  0  0  0  0  0  0  0  0  0  0  0
   10.7710   15.3880   21.1100 C   0  0  1  0  0  0  0  0  0  0  0  0
   11.7880   16.3390   21.7690 C   0  0  0  0  0  0  0  0  0  0  0  0
   12.0550   15.9670   23.2260 C   0  0  0  0  0  0  0  0  0  0  0  0
   10.7570   15.9130   23.9900 C   0  0  0  0  0  0  0  0  0  0  0  0
    9.5030   15.2590   21.9610 C   0  0  0  0  0  0  0  0  0  0  0  0
    9.8540   14.9430   23.3540 N   0  0  0  0  0  0  0  0  0  0  0  0
    9.6810   13.7630   24.0250 C   0  0  0  0  0  0  0  0  0  0  0  0
    9.9960   13.6260   25.2080 O   0  0  0  0  0  0  0  0  0  0  0  0
    9.2260   12.7200   23.2940 N   0  0  0  0  0  0  0  0  0  0  0  0
    8.8810   11.5110   23.9350 C   0  0  0  0  0  0  0  0  0  0  0  0
    9.3440   10.2730   23.4930 C   0  0  0  0  0  0  0  0  0  0  0  0
    8.7600    9.1010   23.9470 C   0  0  0  0  0  0  0  0  0  0  0  0
    7.7350    9.1370   24.8840 C   0  0  0  0  0  0  0  0  0  0  0  0
    7.3300   10.3660   25.3810 C   0  0  0  0  0  0  0  0  0  0  0  0
    6.3950   10.6970   26.3110 N   0  0  0  0  0  0  0  0  0  0  0  0
    5.4600    9.8210   27.0010 C   0  0  0  0  0  0  0  0  0  0  0  0
    7.8890   11.5750   24.9310 C   0  0  0  0  0  0  0  0  0  0  0  0
    7.2140   12.5760   25.6770 C   0  0  0  0  0  0  0  0  0  0  0  0
    6.3320   12.0480   26.4980 N   0  0  0  0  0  0  0  0  0  0  0  0
 19 18  1  0
 18 22  1  0
 22 21  2  0
 21 20  1  0
 20 13  1  0
 13 12  1  0
 12 10  1  0
 11 10  2  0
 10  9  1  0
  9  7  1  0
  7  6  1  0
  6  5  1  0
  5  4  1  0
  4  2  1  6
  3  2  1  0
  2  1  2  0
  8  4  1  0
  9  8  1  0
 14 13  2  0
 15 14  1  0
 16 15  2  0
 17 16  1  0
 20 17  2  0
 18 17  1  0
M  END
$$$$
