A71EV2A-x4017b
  PyMOL3.1          3D                             0

  4  3  0  0  0  0  0  0  0  0999 V2000
   15.4040   31.3240   14.3440 O   0  0  0  0  0  0  0  0  0  0  0  0
   13.8440   31.7550   12.2110 C   0  0  0  0  0  0  0  0  0  0  0  0
   13.2720   32.9290   14.5630 C   0  0  0  0  0  0  0  0  0  0  0  0
   13.9510   31.3540   13.9760 S   0  0  0  0  0  0  0  0  0  0  0  0
  1  4  1  0  0  0  0
  2  4  1  0  0  0  0
  3  4  1  0  0  0  0
M  END
$$$$
