A71EV2A-x0202a
  PyMOL3.1          3D                             0

  8  6  0  0  0  0  0  0  0  0999 V2000
   19.4520   -8.3390    8.2800 O   0  0  0  0  0  0  0  0  0  0  0  0
   16.8450   -8.3420    8.4610 C   0  0  0  0  0  0  0  0  0  0  0  0
   18.3690   -7.0540   10.2850 C   0  0  0  0  0  0  0  0  0  0  0  0
   18.3350   -7.3690    8.5310 S   0  0  0  0  0  0  0  0  0  0  0  0
   14.2310   21.2110   10.7220 O   0  0  0  0  0  0  0  0  0  0  0  0
   13.6720   21.3150    8.1840 C   0  0  0  0  0  0  0  0  0  0  0  0
   15.7660   22.6940    9.1640 C   0  0  0  0  0  0  0  0  0  0  0  0
   14.9490   21.1280    9.4120 S   0  0  0  0  0  0  0  0  0  0  0  0
  1  4  1  0  0  0  0
  2  4  1  0  0  0  0
  3  4  1  0  0  0  0
  5  8  1  0  0  0  0
  6  8  1  0  0  0  0
  7  8  1  0  0  0  0
M  END
$$$$
