A71EV2A-x0202a
  PyMOL3.1          3D                             0

  4  3  0  0  0  0  0  0  0  0999 V2000
   14.2310   21.2110   10.7220 O   0  0  0  0  0  0  0  0  0  0  0  0
   13.6720   21.3150    8.1840 C   0  0  0  0  0  0  0  0  0  0  0  0
   15.7660   22.6940    9.1640 C   0  0  0  0  0  0  0  0  0  0  0  0
   14.9490   21.1280    9.4120 S   0  0  0  0  0  0  0  0  0  0  0  0
  1  4  1  0  0  0  0
  2  4  1  0  0  0  0
  3  4  1  0  0  0  0
M  END
$$$$
