A71EV2A-x0202_A_147_0_1_A71EV2A-x3977+A+202+0+1__LIG
     RDKit          3D

 13 14  0  0  0  0  0  0  0  0999 V2000
   17.4980   -3.0090   19.8790 O   0  0  0  0  0  0  0  0  0  0  0  0
   18.0820   -1.7760   20.2990 S   0  0  0  0  0  0  0  0  0  0  0  0
   19.2760   -1.2910   19.6850 O   0  0  0  0  0  0  0  0  0  0  0  0
   16.9850   -0.6450   20.1990 N   0  0  0  0  0  0  0  0  0  0  0  0
   18.3620   -1.9150   21.9200 C   0  0  0  0  0  0  0  0  0  0  0  0
   18.6880   -0.9120   22.7750 N   0  0  0  0  0  0  0  0  0  0  0  0
   18.8720   -1.4710   24.0280 C   0  0  0  0  0  0  0  0  0  0  0  0
   18.6730   -2.7890   24.0170 N   0  0  0  0  0  0  0  0  0  0  0  0
   18.3510   -3.0910   22.7180 C   0  0  0  0  0  0  0  0  0  0  0  0
   18.7890    0.4140   22.4440 N   0  0  0  0  0  0  0  0  0  0  0  0
   19.0990    1.2030   23.4910 C   0  0  0  0  0  0  0  0  0  0  0  0
   19.3100    0.7510   24.8030 C   0  0  0  0  0  0  0  0  0  0  0  0
   19.2000   -0.5810   25.0740 C   0  0  0  0  0  0  0  0  0  0  0  0
  4  2  1  0
  3  2  2  0
  2  1  2  0
  5  2  1  0
  5  9  2  0
  9  8  1  0
  8  7  2  0
  7 13  1  0
 13 12  2  0
 12 11  1  0
 11 10  2  0
 10  6  1  0
  6  5  1  0
  7  6  1  0
M  END
$$$$
