A71EV2A-x0202a
  PyMOL3.1          3D                             0

  5  4  0  0  0  0  0  0  0  0999 V2000
   -1.8200   24.6970   14.3370 O   0  0  0  0  0  0  0  0  0  0  0  0
   -2.8740   23.8200   16.2400 O   0  0  0  0  0  0  0  0  0  0  0  0
   -1.4110   22.4730   14.9810 O   0  5  0  0  0  0  0  0  0  0  0  0
   -0.5600   24.2440   16.2710 O   0  0  0  0  0  0  0  0  0  0  0  0
   -1.6660   23.8100   15.4570 S   0  0  0  0  0  0  0  0  0  0  0  0
  1  5  1  0  0  0  0
  2  5  1  0  0  0  0
  3  5  1  0  0  0  0
  4  5  2  0  0  0  0
M  END
$$$$
