A71EV2A-x0202a
  PyMOL3.1          3D                             0

  4  3  0  0  0  0  0  0  0  0999 V2000
   -0.7450   -0.7590   23.9880 O   0  0  0  0  0  0  0  0  0  0  0  0
    0.2890   -3.1620   23.7970 C   0  0  0  0  0  0  0  0  0  0  0  0
   -2.3310   -2.7420   23.2870 C   0  0  0  0  0  0  0  0  0  0  0  0
   -0.7570   -1.9350   23.0510 S   0  0  0  0  0  0  0  0  0  0  0  0
  1  4  1  0  0  0  0
  2  4  1  0  0  0  0
  3  4  1  0  0  0  0
M  END
$$$$
