A71EV2A-x0202a
  PyMOL3.1          3D                             0

  4  3  0  0  0  0  0  0  0  0999 V2000
   13.2230   22.1430   24.3110 O   0  0  0  0  0  0  0  0  0  0  0  0
   13.4050   22.4250   26.9320 C   0  0  0  0  0  0  0  0  0  0  0  0
   11.0590   21.8540   25.7740 C   0  0  0  0  0  0  0  0  0  0  0  0
   12.7780   21.4500   25.5780 S   0  0  0  0  0  0  0  0  0  0  0  0
  1  4  1  0  0  0  0
  2  4  1  0  0  0  0
  3  4  1  0  0  0  0
M  END
$$$$
