A71EV2A-x4017_A_201_0_1_A71EV2A-x0526+A+147+0+1__LIG
     RDKit          3D

 22 24  0  0  0  0  0  0  0  0999 V2000
    9.8550   16.8530   19.4680 O   0  0  0  0  0  0  0  0  0  0  0  0
   10.3100   15.7320   19.7100 C   0  0  0  0  0  0  0  0  0  0  0  0
   10.6140   14.8580   18.7620 N   0  0  0  0  0  0  0  0  0  0  0  0
   10.6700   15.3240   21.1300 C   0  0  1  0  0  0  0  0  0  0  0  0
   11.7480   16.2620   21.6770 C   0  0  0  0  0  0  0  0  0  0  0  0
   12.1670   15.8750   23.0890 C   0  0  0  0  0  0  0  0  0  0  0  0
   10.9760   15.8750   24.0030 C   0  0  0  0  0  0  0  0  0  0  0  0
    9.4850   15.3090   22.1040 C   0  0  0  0  0  0  0  0  0  0  0  0
    9.9530   14.9790   23.4600 N   0  0  0  0  0  0  0  0  0  0  0  0
    9.7250   13.8170   24.1230 C   0  0  0  0  0  0  0  0  0  0  0  0
   10.0020   13.6900   25.3150 O   0  0  0  0  0  0  0  0  0  0  0  0
    9.2930   12.7810   23.3690 N   0  0  0  0  0  0  0  0  0  0  0  0
    8.8170   11.5980   23.9490 C   0  0  0  0  0  0  0  0  0  0  0  0
    9.2530   10.3230   23.5920 C   0  0  0  0  0  0  0  0  0  0  0  0
    8.5750    9.1980   24.0430 C   0  0  0  0  0  0  0  0  0  0  0  0
    7.4780    9.3150   24.8840 C   0  0  0  0  0  0  0  0  0  0  0  0
    7.0860   10.5830   25.2800 C   0  0  0  0  0  0  0  0  0  0  0  0
    6.0950   11.0010   26.1080 N   0  0  0  0  0  0  0  0  0  0  0  0
    5.1480   10.1920   26.8580 C   0  0  0  0  0  0  0  0  0  0  0  0
    7.7380   11.7410   24.8240 C   0  0  0  0  0  0  0  0  0  0  0  0
    7.0420   12.8070   25.4470 C   0  0  0  0  0  0  0  0  0  0  0  0
    6.0660   12.3620   26.2070 N   0  0  0  0  0  0  0  0  0  0  0  0
 19 18  1  0
 18 22  1  0
 22 21  2  0
 21 20  1  0
 20 13  1  0
 13 12  1  0
 12 10  1  0
 11 10  2  0
 10  9  1  0
  9  7  1  0
  7  6  1  0
  6  5  1  0
  5  4  1  0
  4  2  1  6
  3  2  1  0
  2  1  2  0
  8  4  1  0
  9  8  1  0
 14 13  2  0
 15 14  1  0
 16 15  2  0
 17 16  1  0
 20 17  2  0
 18 17  1  0
M  END
$$$$
