A71EV2A-x4017a
  PyMOL3.1          3D                             0

  4  3  0  0  0  0  0  0  0  0999 V2000
   17.5360   -0.0570   20.4050 O   0  0  0  0  0  0  0  0  0  0  0  0
   19.2260    0.1640   22.4700 C   0  0  0  0  0  0  0  0  0  0  0  0
   19.6490    1.5780   20.2220 C   0  0  0  0  0  0  0  0  0  0  0  0
   19.0090   -0.0540   20.6840 S   0  0  0  0  0  0  0  0  0  0  0  0
  1  4  1  0  0  0  0
  2  4  1  0  0  0  0
  3  4  1  0  0  0  0
M  END
$$$$
