A71EV2A-x4012b
  PyMOL3.1          3D                             0

  4  3  0  0  0  0  0  0  0  0999 V2000
   15.2940   30.8440   14.8500 O   0  0  0  0  0  0  0  0  0  0  0  0
   13.7220   30.9400   12.6850 C   0  0  0  0  0  0  0  0  0  0  0  0
   13.3540   32.6850   14.7000 C   0  0  0  0  0  0  0  0  0  0  0  0
   14.7380   31.8460   13.8830 S   0  0  0  0  0  0  0  0  0  0  0  0
  1  4  1  0  0  0  0
  2  4  1  0  0  0  0
  3  4  1  0  0  0  0
M  END
$$$$
