A71EV2A-x4018a
  PyMOL3.1          3D                             0

  4  3  0  0  0  0  0  0  0  0999 V2000
   18.1050   -0.5900   21.2150 O   0  0  0  0  0  0  0  0  0  0  0  0
   19.4700    0.8540   23.0100 C   0  0  0  0  0  0  0  0  0  0  0  0
   19.5120    1.5410   20.4080 C   0  0  0  0  0  0  0  0  0  0  0  0
   19.4610    0.0230   21.3980 S   0  0  0  0  0  0  0  0  0  0  0  0
  1  4  1  0  0  0  0
  2  4  1  0  0  0  0
  3  4  1  0  0  0  0
M  END
$$$$
