A71EV2A-x4018a
  PyMOL3.1          3D                             0

  4  3  0  0  0  0  0  0  0  0999 V2000
   14.8780  -30.3300   11.5160 O   0  0  0  0  0  0  0  0  0  0  0  0
   13.1000  -29.8590    9.5690 C   0  0  0  0  0  0  0  0  0  0  0  0
   12.8280  -28.6690   11.9660 C   0  0  0  0  0  0  0  0  0  0  0  0
   13.3940  -30.2620   11.3120 S   0  0  0  0  0  0  0  0  0  0  0  0
  1  4  1  0  0  0  0
  2  4  1  0  0  0  0
  3  4  1  0  0  0  0
M  END
$$$$
