A71EV2A-x4012a
  PyMOL3.1          3D                             0

  4  3  0  0  0  0  0  0  0  0999 V2000
   17.5800   -0.1970   20.3360 O   0  0  0  0  0  0  0  0  0  0  0  0
   19.2900   -0.2900   22.3940 C   0  0  0  0  0  0  0  0  0  0  0  0
   19.5050    1.6540   20.5470 C   0  0  0  0  0  0  0  0  0  0  0  0
   18.1870    0.7130   21.3620 S   0  0  0  0  0  0  0  0  0  0  0  0
  1  4  1  0  0  0  0
  2  4  1  0  0  0  0
  3  4  1  0  0  0  0
M  END
$$$$
