A71EV2A-x0207a
  PyMOL3.1          3D                             0

  4  3  0  0  0  0  0  0  0  0999 V2000
   17.9920   -3.0920   23.1290 O   0  0  0  0  0  0  0  0  0  0  0  0
   18.7770   -4.5660   25.1760 C   0  0  0  0  0  0  0  0  0  0  0  0
   19.3220   -1.9260   25.1060 C   0  0  0  0  0  0  0  0  0  0  0  0
   19.2150   -3.3110   23.9990 S   0  0  0  0  0  0  0  0  0  0  0  0
  1  4  1  0  0  0  0
  2  4  1  0  0  0  0
  3  4  1  0  0  0  0
M  END
$$$$
