A71EV2A-x0207a
  PyMOL3.1          3D                             0

  4  3  0  0  0  0  0  0  0  0999 V2000
   26.4150   -6.7930   21.6190 O   0  0  0  0  0  0  0  0  0  0  0  0
   26.5740   -7.2610   24.2200 C   0  0  0  0  0  0  0  0  0  0  0  0
   24.6720   -5.5480   23.2080 C   0  0  0  0  0  0  0  0  0  0  0  0
   25.5160   -7.0860   22.7920 S   0  0  0  0  0  0  0  0  0  0  0  0
  1  4  1  0  0  0  0
  2  4  1  0  0  0  0
  3  4  1  0  0  0  0
M  END
$$$$
