A71EV2A-x0207a
  PyMOL3.1          3D                             0

  4  3  0  0  0  0  0  0  0  0999 V2000
   20.7090  -31.2330    5.2320 O   0  0  0  0  0  0  0  0  0  0  0  0
   21.3650  -30.9960    7.7620 C   0  0  0  0  0  0  0  0  0  0  0  0
   20.0680  -29.0200    6.4910 C   0  0  0  0  0  0  0  0  0  0  0  0
   20.0990  -30.7940    6.5320 S   0  0  0  0  0  0  0  0  0  0  0  0
  1  4  1  0  0  0  0
  2  4  1  0  0  0  0
  3  4  1  0  0  0  0
M  END
$$$$
