A71EV2A-x4012_C_201_0_1_A71EV2A-x0526+A+147+0+1__LIG
     RDKit          3D

 20 21  0  0  0  0  0  0  0  0999 V2000
    9.8770   16.8230   19.6290 O   0  0  0  0  0  0  0  0  0  0  0  0
   10.3050   15.6770   19.8370 C   0  0  0  0  0  0  0  0  0  0  0  0
   10.6590   14.8440   18.8580 N   0  0  0  0  0  0  0  0  0  0  0  0
   10.3780   15.1140   21.2440 C   0  0  1  0  0  0  0  0  0  0  0  0
   11.4730   15.8110   22.0710 C   0  0  0  0  0  0  0  0  0  0  0  0
   11.5670   15.1800   23.4640 C   0  0  0  0  0  0  0  0  0  0  0  0
   10.2250   15.2050   24.1730 C   0  0  0  0  0  0  0  0  0  0  0  0
    9.0360   15.2300   21.9670 C   0  0  0  0  0  0  0  0  0  0  0  0
    9.1600   14.6550   23.3110 N   0  0  0  0  0  0  0  0  0  0  0  0
    8.3480   13.5970   23.6310 C   0  0  0  0  0  0  0  0  0  0  0  0
    7.5550   13.1150   22.8270 O   0  0  0  0  0  0  0  0  0  0  0  0
    8.4570   13.1140   24.8920 N   0  0  0  0  0  0  0  0  0  0  0  0
    7.6510   12.0320   25.3600 C   0  0  0  0  0  0  0  0  0  0  0  0
    7.9300   10.7290   24.9020 C   0  0  0  0  0  0  0  0  0  0  0  0
    8.9690   10.6350   24.0120 O   0  0  0  0  0  0  0  0  0  0  0  0
    9.3120    9.3250   23.5300 C   0  0  0  0  0  0  0  0  0  0  0  0
    6.6520   12.2150   26.3110 C   0  0  0  0  0  0  0  0  0  0  0  0
    5.9560   11.1270   26.8080 C   0  0  0  0  0  0  0  0  0  0  0  0
    6.2300    9.8510   26.3480 C   0  0  0  0  0  0  0  0  0  0  0  0
    7.2070    9.6450   25.3860 C   0  0  0  0  0  0  0  0  0  0  0  0
 16 15  1  0
 15 14  1  0
 14 20  2  0
 20 19  1  0
 19 18  2  0
 18 17  1  0
 17 13  2  0
 14 13  1  0
 13 12  1  0
 12 10  1  0
 11 10  2  0
 10  9  1  0
  9  7  1  0
  7  6  1  0
  6  5  1  0
  5  4  1  0
  4  2  1  6
  3  2  1  0
  2  1  2  0
  8  4  1  0
  9  8  1  0
M  END
$$$$
