A71EV2A-x0202_A_201_0_1_A71EV2A-x0202+A+201+0+1__LIG
     RDKit          3D

 13 14  0  0  0  0  0  0  0  0999 V2000
   10.1840   -6.7350   31.5160 O   0  0  0  0  0  0  0  0  0  0  0  0
   11.5150   -7.0470   31.9180 S   0  0  0  0  0  0  0  0  0  0  0  0
   11.8000   -8.2560   32.6210 O   0  0  0  0  0  0  0  0  0  0  0  0
   12.4510   -6.9780   30.6420 N   0  0  0  0  0  0  0  0  0  0  0  0
   12.0130   -5.7670   32.8340 C   0  0  0  0  0  0  0  0  0  0  0  0
   13.2590   -5.5370   33.3280 N   0  0  0  0  0  0  0  0  0  0  0  0
   13.2170   -4.3510   34.0400 C   0  0  0  0  0  0  0  0  0  0  0  0
   12.0010   -3.8080   34.0270 N   0  0  0  0  0  0  0  0  0  0  0  0
   11.2350   -4.6670   33.2830 C   0  0  0  0  0  0  0  0  0  0  0  0
   14.3520   -6.3440   33.1440 N   0  0  0  0  0  0  0  0  0  0  0  0
   15.4690   -5.8810   33.7450 C   0  0  0  0  0  0  0  0  0  0  0  0
   15.5460   -4.6940   34.4900 C   0  0  0  0  0  0  0  0  0  0  0  0
   14.4250   -3.9300   34.6390 C   0  0  0  0  0  0  0  0  0  0  0  0
  4  2  1  0
  3  2  2  0
  2  1  2  0
  5  2  1  0
  5  9  2  0
  9  8  1  0
  8  7  2  0
  7 13  1  0
 13 12  2  0
 12 11  1  0
 11 10  2  0
 10  6  1  0
  6  5  1  0
  7  6  1  0
M  END
$$$$
