A71EV2A-x4018b
  PyMOL3.1          3D                             0

  4  3  0  0  0  0  0  0  0  0999 V2000
   17.8260    0.0570   20.2980 O   0  0  0  0  0  0  0  0  0  0  0  0
   19.4810    0.3230   22.3870 C   0  0  0  0  0  0  0  0  0  0  0  0
   19.8730    1.7760   20.1570 C   0  0  0  0  0  0  0  0  0  0  0  0
   19.2940    0.1150   20.5950 S   0  0  0  0  0  0  0  0  0  0  0  0
  1  4  1  0  0  0  0
  2  4  1  0  0  0  0
  3  4  1  0  0  0  0
M  END
$$$$
