A71EV2A-x4018_C_201_0_1_A71EV2A-x0526+A+147+0+1__LIG
     RDKit          3D

 21 22  0  0  0  0  0  0  0  0999 V2000
    9.8160   16.9100   19.4560 O   0  0  0  0  0  0  0  0  0  0  0  0
   10.1890   15.7690   19.7610 C   0  0  0  0  0  0  0  0  0  0  0  0
   10.5650   14.8620   18.8730 N   0  0  0  0  0  0  0  0  0  0  0  0
   10.1930   15.3130   21.2080 C   0  0  1  0  0  0  0  0  0  0  0  0
   11.3530   16.0030   21.9320 C   0  0  0  0  0  0  0  0  0  0  0  0
   11.8320   15.2530   23.1560 C   0  0  0  0  0  0  0  0  0  0  0  0
   10.9110   15.3930   24.3390 C   0  0  0  0  0  0  0  0  0  0  0  0
    8.8060   15.5760   21.8060 C   0  0  0  0  0  0  0  0  0  0  0  0
    8.6720   15.7120   23.3220 C   0  0  0  0  0  0  0  0  0  0  0  0
    9.5750   14.8450   24.0870 N   0  0  0  0  0  0  0  0  0  0  0  0
    9.2260   13.6660   24.6410 C   0  0  0  0  0  0  0  0  0  0  0  0
    9.9140   13.1160   25.4930 O   0  0  0  0  0  0  0  0  0  0  0  0
    7.8860   13.0850   24.2380 C   0  0  0  0  0  0  0  0  0  0  0  0
    7.4890   11.9870   25.1960 C   0  0  0  0  0  0  0  0  0  0  0  0
    7.8710   10.6670   24.9550 C   0  0  0  0  0  0  0  0  0  0  0  0
    8.8450   10.5160   24.0020 O   0  0  0  0  0  0  0  0  0  0  0  0
    9.4220    9.2280   23.8240 C   0  0  0  0  0  0  0  0  0  0  0  0
    6.6220   12.2420   26.2540 C   0  0  0  0  0  0  0  0  0  0  0  0
    6.0980   11.2070   27.0050 C   0  0  0  0  0  0  0  0  0  0  0  0
    6.4240    9.9080   26.7100 C   0  0  0  0  0  0  0  0  0  0  0  0
    7.3120    9.6260   25.6820 C   0  0  0  0  0  0  0  0  0  0  0  0
 17 16  1  0
 16 15  1  0
 15 21  2  0
 21 20  1  0
 20 19  2  0
 19 18  1  0
 18 14  2  0
 15 14  1  0
 14 13  1  0
 13 11  1  0
 12 11  2  0
 11 10  1  0
 10  7  1  0
  7  6  1  0
  6  5  1  0
  5  4  1  0
  4  2  1  6
  3  2  1  0
  2  1  2  0
  8  4  1  0
  9  8  1  0
 10  9  1  0
M  END
$$$$
