A71EV2A-x4018b
  PyMOL3.1          3D                             0

  4  3  0  0  0  0  0  0  0  0999 V2000
   14.7080   30.6630   13.7800 O   0  0  0  0  0  0  0  0  0  0  0  0
   13.4280   32.2870   12.0790 C   0  0  0  0  0  0  0  0  0  0  0  0
   13.2240   32.6790   14.7340 C   0  0  0  0  0  0  0  0  0  0  0  0
   13.3550   31.2820   13.5860 S   0  0  0  0  0  0  0  0  0  0  0  0
  1  4  1  0  0  0  0
  2  4  1  0  0  0  0
  3  4  1  0  0  0  0
M  END
$$$$
